I0Z
  PyMOL2.4          3D                             0

 36 40  0  0  0  0  0  0  0  0999 V2000
   26.6114   50.1525   -5.3244 N   0  0  0  0  0  0  0  0  0  0  0  0
   28.3965   50.8325    1.1609 N   0  0  0  0  0  0  0  0  0  0  0  0
   23.5774   51.0562   -7.2402 C   0  0  0  0  0  0  0  0  0  0  0  0
   24.4134   51.0651   -5.9568 C   0  0  0  0  0  0  0  0  0  0  0  0
   23.4983   50.8510   -4.7448 C   0  0  0  0  0  0  0  0  0  0  0  0
   22.3505   51.8549   -4.7599 C   0  0  0  0  0  0  0  0  0  0  0  0
   25.4705   49.9793   -6.0228 C   0  0  0  0  0  0  0  0  0  0  0  0
   28.2808   48.7885   -4.1084 C   0  0  0  0  0  0  0  0  0  0  0  0
   27.5792   52.0998   -2.1880 C   0  0  0  0  0  0  0  0  0  0  0  0
   29.5558   51.5243    0.8108 C   0  0  0  0  0  0  0  0  0  0  0  0
   31.7569   52.4505    0.9503 C   0  0  0  0  0  0  0  0  0  0  0  0
   29.4096   52.1191   -0.4369 C   0  0  0  0  0  0  0  0  0  0  0  0
   26.2123   50.4622    0.2152 C   0  0  0  0  0  0  0  0  0  0  0  0
   25.0858   51.0916   -0.4012 C   0  0  0  0  0  0  0  0  0  0  0  0
   22.6509   51.2438   -0.9544 C   0  0  0  0  0  0  0  0  0  0  0  0
   24.5219   47.5440    1.7594 C   0  0  0  0  0  0  0  0  0  0  0  0
   26.9088   51.3117   -4.4820 C   0  0  0  0  0  0  0  0  0  0  0  0
   22.5500   48.7303    0.3693 O   0  0  0  0  0  0  0  0  0  0  0  0
   23.6211   49.3275    0.3561 C   0  0  0  0  0  0  0  0  0  0  0  0
   23.8416   50.5713   -0.3476 C   0  0  0  0  0  0  0  0  0  0  0  0
   24.7374   48.7649    0.9845 N   0  0  0  0  0  0  0  0  0  0  0  0
   25.9842   49.3158    0.9028 C   0  0  0  0  0  0  0  0  0  0  0  0
   27.5765   51.0169    0.1440 C   0  0  0  0  0  0  0  0  0  0  0  0
   30.4109   52.8909   -1.0101 C   0  0  0  0  0  0  0  0  0  0  0  0
   31.5886   53.0529   -0.2917 C   0  0  0  0  0  0  0  0  0  0  0  0
   30.7485   51.6829    1.5150 C   0  0  0  0  0  0  0  0  0  0  0  0
   28.1330   51.7655   -0.8702 N   0  0  0  0  0  0  0  0  0  0  0  0
   27.3661   50.9117   -3.0864 C   0  0  0  0  0  0  0  0  0  0  0  0
   28.5671   49.9795   -3.2005 C   0  0  0  0  0  0  0  0  0  0  0  0
   27.7532   49.2381   -5.4579 C   0  0  0  0  0  0  0  0  0  0  0  0
   25.2910   48.9866   -6.7026 O   0  0  0  0  0  0  0  0  0  0  0  0
   22.4438   52.0636   -7.1412 C   0  0  0  0  0  0  0  0  0  0  0  0
   21.5671   51.7591   -6.0014 N   0  0  0  0  0  0  0  0  0  0  0  0
   20.2879   52.4967   -6.0296 C   0  0  0  0  0  0  0  0  0  0  0  0
   20.4418   53.9455   -5.5931 C   0  0  0  0  0  0  0  0  0  0  0  0
   19.1863   51.7694   -5.2770 C   0  0  0  0  0  0  0  0  0  0  0  0
  1  7  1  0  0  0  0
  1 17  1  0  0  0  0
  1 30  1  0  0  0  0
  2 10  1  0  0  0  0
  2 23  2  0  0  0  0
  3  4  1  0  0  0  0
  3 32  1  0  0  0  0
  4  5  1  0  0  0  0
  4  7  1  0  0  0  0
  5  6  1  0  0  0  0
  6 33  1  0  0  0  0
  7 31  2  0  0  0  0
  8 29  1  0  0  0  0
  8 30  1  0  0  0  0
  9 27  1  0  0  0  0
  9 28  1  0  0  0  0
 10 12  1  0  0  0  0
 10 26  2  0  0  0  0
 11 25  2  0  0  0  0
 11 26  1  0  0  0  0
 12 24  2  0  0  0  0
 12 27  1  0  0  0  0
 13 14  1  0  0  0  0
 13 22  2  0  0  0  0
 13 23  1  0  0  0  0
 14 20  2  0  0  0  0
 15 20  1  0  0  0  0
 16 21  1  0  0  0  0
 17 28  1  0  0  0  0
 18 19  2  0  0  0  0
 19 20  1  0  0  0  0
 19 21  1  0  0  0  0
 21 22  1  0  0  0  0
 23 27  1  0  0  0  0
 24 25  1  0  0  0  0
 28 29  1  0  0  0  0
 32 33  1  0  0  0  0
 33 34  1  0  0  0  0
 34 35  1  0  0  0  0
 34 36  1  0  0  0  0
M  END
$$$$
