H8G
  PyMOL2.4          3D                             0

 25 28  0  0  0  0  0  0  0  0999 V2000
    4.1411    5.2379  -13.2733 C   0  0  0  0  0  0  0  0  0  0  0  0
    7.2007    2.2774  -14.0849 C   0  0  0  0  0  0  0  0  0  0  0  0
    2.6601    3.7415   -6.5244 C   0  0  0  0  0  0  0  0  0  0  0  0
    6.0343    5.1961   -8.5834 C   0  0  0  0  0  0  0  0  0  0  0  0
    8.4881    8.3055   -6.4924 C   0  0  0  0  0  0  0  0  0  0  0  0
    7.8954    7.1871   -7.1287 C   0  0  0  0  0  0  0  0  0  0  0  0
    7.8131    9.1230   -5.5856 C   0  0  0  0  0  0  0  0  0  0  0  0
    4.3745    8.5852   -4.5848 C   0  0  0  0  0  0  0  0  0  0  0  0
    4.4515    3.8101  -12.8495 C   0  0  0  0  0  0  0  0  0  0  0  0
    6.8448    3.6528  -13.6216 C   0  0  0  0  0  0  0  0  0  0  0  0
    3.7482    6.4166   -6.0115 C   0  0  0  0  0  0  0  0  0  0  0  0
    4.5253    3.2008   -7.9316 C   0  0  0  0  0  0  0  0  0  0  0  0
    6.2701    3.5547  -11.2432 C   0  0  0  0  0  0  0  0  0  0  0  0
    5.7852    5.7394   -7.3944 C   0  0  0  0  0  0  0  0  0  0  0  0
    4.5774    7.5533   -5.4654 C   0  0  0  0  0  0  0  0  0  0  0  0
    6.5728    6.8644   -6.8284 C   0  0  0  0  0  0  0  0  0  0  0  0
    6.4954    8.7887   -5.2921 C   0  0  0  0  0  0  0  0  0  0  0  0
    5.9120    7.6737   -5.8993 C   0  0  0  0  0  0  0  0  0  0  0  0
    5.6434    3.7430   -8.8622 C   0  0  0  0  0  0  0  0  0  0  0  0
    4.6187    5.2251   -6.5300 C   0  0  0  0  0  0  0  0  0  0  0  0
    5.2973    3.5759  -10.2687 N   0  0  0  0  0  0  0  0  0  0  0  0
    5.5365    9.3543   -4.4943 N   0  0  0  0  0  0  0  0  0  0  0  0
    3.7657    4.3011   -7.3240 N   0  0  0  0  0  0  0  0  0  0  0  0
    5.8696    3.6297  -12.5195 N   0  0  0  0  0  0  0  0  0  0  0  0
    7.5147    3.5225  -10.9678 O   0  0  0  0  0  0  0  0  0  0  0  0
  1  9  1  0  0  0  0
  2 10  1  0  0  0  0
  3 23  1  0  0  0  0
  4 14  2  0  0  0  0
  4 19  1  0  0  0  0
  5  6  2  0  0  0  0
  5  7  1  0  0  0  0
  6 16  1  0  0  0  0
  7 17  2  0  0  0  0
  8 15  2  0  0  0  0
  8 22  1  0  0  0  0
  9 24  1  0  0  0  0
 10 24  1  0  0  0  0
 11 15  1  0  0  0  0
 11 20  1  0  0  0  0
 12 19  1  0  0  0  0
 12 23  1  0  0  0  0
 13 21  1  0  0  0  0
 13 24  1  0  0  0  0
 13 25  2  0  0  0  0
 14 16  1  0  0  0  0
 14 20  1  0  0  0  0
 15 18  1  0  0  0  0
 16 18  2  0  0  0  0
 17 18  1  0  0  0  0
 17 22  1  0  0  0  0
 19 21  1  0  0  0  0
 20 23  1  0  0  0  0
M  END
$$$$
